11
Coordinates from ORCA-job orca_opt
  Pt  -2.87230798659401      0.14721348072683      0.17546034749719
  N   -0.88989957657788      0.63642335367661      0.53637082687021
  H   -0.77026521067021      1.54534480068763      1.01038980364939
  H   -0.31174365804595      0.65752973296537     -0.31832161373880
  H   -0.49249056675031     -0.08959617244195      1.15784869728947
  N   -3.19190674132390      1.80661441861532     -1.02584679251076
  H   -3.05341968957919      2.70203475465697     -0.53167480371952
  H   -4.17512017740942      1.78134191892754     -1.34812184927424
  H   -2.59336275109607      1.82503978973976     -1.86635777150009
  Cl  -2.48097142519675     -1.71899765662894      1.53969819953349
  Cl  -5.11551221675628     -0.38194842092516     -0.25344504409633
