11
Modified XYZ file for MCPB.py - PyConSolv
Pt -2.87200000 0.14700000 0.17500000
N  -0.89000000 0.63600000 0.53600000
H  -0.77000000 1.54500000 1.01000000
H  -0.31200000 0.65800000 -0.31800000
H  -0.49200000 -0.09000000 1.15800000
N  -3.19200000 1.80700000 -1.02600000
H  -3.05300000 2.70200000 -0.53200000
H  -4.17500000 1.78100000 -1.34800000
H  -2.59300000 1.82500000 -1.86600000
Cl -2.48100000 -1.71900000 1.54000000
Cl -5.11600000 -0.38200000 -0.25300000
